/*--------------------------------*- C++ -*----------------------------------*\
  =========                 |
  \\      /  F ield         | OpenFOAM: The Open Source CFD Toolbox
   \\    /   O peration     | Website:  https://openfoam.org
    \\  /    A nd           | Version:  10
     \\/     M anipulation  |
\*---------------------------------------------------------------------------*/
FoamFile
{
    format      ascii;
    class       polyBoundaryMesh;
    location    "constant/polyMesh";
    object      boundary;
}
// * * * * * * * * * * * * * * * * * * * * * * * * * * * * * * * * * * * * * //

4
(
    top
    {
        type            patch;
        nFaces          80;
        startFace       12640;
    }
    inlet
    {
        type            patch;
        nFaces          80;
        startFace       12720;
    }
    axis
    {
        type            wall;
        inGroups        List<word> 1(wall);
        nFaces          160;
        startFace       12800;
    }
    frontAndBack
    {
        type            empty;
        inGroups        List<word> 1(empty);
        nFaces          12800;
        startFace       12960;
    }
)

// ************************************************************************* //
